Circuit: * C:\Users\gasop\Documents\sdsu\Mechatrnics\cap_water_sensor\LTSpice test files\multi_directional_cap_test.asc

Limiting rise time of source v1 to 0.5
Limiting fall time of source v1 to 0.5
Limiting rise time of source v2 to 0.5
Limiting fall time of source v2 to 0.5
Limiting rise time of source v3 to 0.5
Limiting fall time of source v3 to 0.5
Limiting rise time of source v4 to 0.5
Limiting fall time of source v4 to 0.5
Direct Newton iteration for .op point succeeded.

Date: Mon Feb  5 11:30:34 2024
Total elapsed time: 0.134 seconds.

tnom = 27
temp = 27
method = modified trap
totiter = 504
traniter = 494
tranpoints = 246
accept = 231
rejected = 15
matrix size = 13
fillins = 0
solver = Normal
Avg thread counts: 5.6/7.4/7.6/5.6
Matrix Compiler1:      17 opcodes  0.3/[0.2]/0.3
Matrix Compiler2: off  [0.2]/0.4/0.3

