Circuit: * C:\Users\gasop\Documents\sdsu\Mechatrnics\cap_water_sensor\LTSpice test files\plain_format_test.asc

WARNING: Less than two connections to node n001.  This node is used by r1.
Direct Newton iteration for .op point succeeded.

Date: Fri Jan 12 20:45:42 2024
Total elapsed time: 0.029 seconds.

tnom = 27
temp = 27
method = modified trap
totiter = 83
traniter = 80
tranpoints = 41
accept = 41
rejected = 0
matrix size = 3
fillins = 0
solver = Normal
Avg thread counts: 8.0/8.0/8.0/8.0
Matrix Compiler1: 104 bytes object code size
Matrix Compiler2: 163 bytes object code size
