Circuit: * C:\Users\gasop\Documents\sdsu\Mechatrnics\cap_water_sensor\LTSpice test files\daisy_chain_pmos4.asc

Limiting rise time of source v1 to 0.002
Limiting fall time of source v1 to 0.002
Limiting rise time of source v2 to 0.002
Limiting fall time of source v2 to 0.002
Limiting rise time of source v3 to 0.002
Limiting fall time of source v3 to 0.002
Limiting rise time of source v4 to 0.002
Limiting fall time of source v4 to 0.002
Limiting rise time of source v6 to 0.002
Limiting fall time of source v6 to 0.002
WARNING: Node N007 is floating.
WARNING: Node N009 is floating.
WARNING: Node N012 is floating.
WARNING: Node N015 is floating.
WARNING: Node N017 is floating.
WARNING: Node N018 is floating.
WARNING: Node N019 is floating.
WARNING: Node N020 is floating.

WARNING: Less than two connections to node hg.  This node is used by v6.
Direct Newton iteration for .op point succeeded.

Date: Sat Feb  3 15:53:18 2024
Total elapsed time: 0.054 seconds.

tnom = 27
temp = 27
method = modified trap
totiter = 502
traniter = 476
tranpoints = 225
accept = 186
rejected = 39
matrix size = 28
fillins = 0
solver = Normal
Avg thread counts: 5.7/7.7/7.9/5.7
Matrix Compiler1: 1.62 KB object code size  0.4/0.2/[0.1]
Matrix Compiler2: 2.45 KB object code size  0.3/0.3/[0.1]

