Circuit: * C:\Users\gasop\Documents\sdsu\Mechatrnics\cap_water_sensor\LTSpice test files\Draft1.asc

Limiting rise time of source v2 to 0.002
Limiting fall time of source v2 to 0.002
WARNING: Node N003 is floating.

WARNING: Less than two connections to node vo.  This node is used by r1.
Direct Newton iteration for .op point succeeded.

Date: Fri Feb  2 23:35:47 2024
Total elapsed time: 0.061 seconds.

tnom = 27
temp = 27
method = modified trap
totiter = 2295
traniter = 2272
tranpoints = 1132
accept = 1110
rejected = 22
matrix size = 6
fillins = 0
solver = Normal
Avg thread counts: 2.2/3.4/3.4/2.2
Matrix Compiler1: 272 bytes object code size  0.1/0.1/[0.0]
Matrix Compiler2:      34 opcodes  0.1/[0.0]/0.1

