Circuit: * C:\Users\gasop\Documents\sdsu\Mechatrnics\cap_water_sensor\LTSpice test files\Draft3.asc

Limiting rise time of source v5 to 0.002
Limiting fall time of source v5 to 0.002
Limiting rise time of source v6 to 0.002
Limiting fall time of source v6 to 0.002
Limiting rise time of source v7 to 0.002
Limiting fall time of source v7 to 0.002
Limiting rise time of source v8 to 0.002
Limiting fall time of source v8 to 0.002
Direct Newton iteration for .op point succeeded.

Date: Sat Feb  3 09:20:45 2024
Total elapsed time: 0.053 seconds.

tnom = 27
temp = 27
method = modified trap
totiter = 662
traniter = 659
tranpoints = 321
accept = 267
rejected = 54
matrix size = 20
fillins = 0
solver = Normal
Avg thread counts: 4.9/6.5/6.7/4.9
Matrix Compiler1:      33 opcodes  0.2/[0.1]/0.1
Matrix Compiler2: 1.15 KB object code size  0.1/0.1/[0.1]

