Circuit: * C:\Users\gasop\Documents\sdsu\Mechatrnics\cap_water_sensor\LTSpice test files\Draft4.asc

Limiting rise time of source v1 to 0.002
Limiting fall time of source v1 to 0.002
Limiting rise time of source v4 to 0.002
Limiting fall time of source v4 to 0.002
WARNING: Node N003 is floating.
WARNING: Node N007 is floating.

WARNING: Less than two connections to node vouy3.  This node is used by r4.
WARNING: Less than two connections to node vouy4.  This node is used by r5.
Direct Newton iteration for .op point succeeded.

Date: Sat Feb  3 15:17:05 2024
Total elapsed time: 0.049 seconds.

tnom = 27
temp = 27
method = modified trap
totiter = 360
traniter = 334
tranpoints = 145
accept = 126
rejected = 19
matrix size = 16
fillins = 0
solver = Normal
Avg thread counts: 6.6/8.0/8.0/6.6
Matrix Compiler1: 654 bytes object code size  0.2/0.1/[0.1]
Matrix Compiler2: 1.15 KB object code size  0.1/0.1/[0.1]

