Circuit: * C:\Users\gasop\Documents\sdsu\Mechatrnics\cap_water_sensor\LTSpice test files\multi_cap_at_once_test.asc

c4: both pins shorted together -- ignoring.
c2: both pins shorted together -- ignoring.
c3: both pins shorted together -- ignoring.
c5: both pins shorted together -- ignoring.
c8: both pins shorted together -- ignoring.
Limiting rise time of source v2 to 1.5
Limiting fall time of source v2 to 1.5
Limiting rise time of source v3 to 1.4
Limiting fall time of source v3 to 1.4
Limiting rise time of source v4 to 1.3
Limiting fall time of source v4 to 1.3
Limiting rise time of source v5 to 1.2
Limiting fall time of source v5 to 1.2
Limiting rise time of source v6 to 1.1
Limiting fall time of source v6 to 1.1
Limiting rise time of source v7 to 1
Limiting fall time of source v7 to 1
Limiting rise time of source v8 to 0.9
Limiting fall time of source v8 to 0.9
Limiting rise time of source v9 to 0.8
Limiting fall time of source v9 to 0.8
Direct Newton iteration for .op point succeeded.

Date: Sun Mar  3 17:41:13 2024
Total elapsed time: 0.056 seconds.

tnom = 27
temp = 27
method = modified trap
totiter = 919
traniter = 909
tranpoints = 432
accept = 385
rejected = 47
matrix size = 23
fillins = 0
solver = Normal
Avg thread counts: 4.0/5.8/6.0/4.0
Matrix Compiler1: 510 bytes object code size  0.1/0.1/[0.1]
Matrix Compiler2: 1.06 KB object code size  0.1/0.2/[0.1]

